taskid: 0 hostname: mc4
 Ntasks in X            1 , ntasks in Y            1
  Domain # 1: dx =  2000.000 m
REAL_EM V4.2.2 PREPROCESSOR
 *************************************
 Parent domain
 ids,ide,jds,jde            1        1250           1         750
 ims,ime,jms,jme           -4        1255          -4         755
 ips,ipe,jps,jpe            1        1250           1         750
 *************************************
DYNAMICS OPTION: Eulerian Mass Coordinate
   alloc_space_field: domain            1 ,            33288728576  bytes allocated
Time period #   1 to process = 2021-01-01_00:00:00.
Time period #   2 to process = 2021-01-01_06:00:00.
Time period #   3 to process = 2021-01-01_12:00:00.
Time period #   4 to process = 2021-01-01_18:00:00.
Total analysis times to input =    4.
  
 -----------------------------------------------------------------------------
  
 Domain  1: Current date being processed: 2021-01-01_00:00:00.0000, which is loop #   1 out of    4
 configflags%julyr, %julday, %gmt:        2021           1  0.0000000E+00
d01 2021-01-01_00:00:00  Yes, this special data is acceptable to use: OUTPUT FROM METGRID V4.2
d01 2021-01-01_00:00:00  Input data is acceptable to use: met_em.d01.2021-01-01_00:00:00.nc
 metgrid input_wrf.F first_date_input = 2021-01-01_00:00:00
 metgrid input_wrf.F first_date_nml = 2021-01-01_00:00:00
d01 2021-01-01_00:00:00 Timing for input          3 s.
d01 2021-01-01_00:00:00          flag_soil_layers read from met_em file is  1
Max map factor in domain 1 =  0.99. Scale the dt in the model accordingly.
Using sfcprs  to compute psfc
 using new automatic levels program
           1   50.00000       50.00000      0.9938148    
           2   64.00000       114.0000      0.9859507       1.280000    
           3   81.56160       195.5616      0.9760143       1.274400    
           4   103.3692       298.9308      0.9635576       1.267375    
           5   130.1058       429.0366      0.9480931       1.258652    
           6   162.3666       591.4031      0.9291238       1.247958    
           7   200.5314       791.9345      0.9061913       1.235053    
           8   244.6056       1036.540      0.8789424       1.219787    
           9   294.0546       1330.595      0.8472080       1.202158    
          10   347.6837       1678.278      0.8110778       1.182378    
          11   403.6352       2081.914      0.7709491       1.160927    
          12   459.5572       2541.471      0.7275254       1.138546    
          13   512.9473       3054.418      0.6817554       1.116177    
          14   564.2420       3618.660      0.6345036       1.100000    
          15   620.6662       4239.326      0.5860305       1.100000    
   25416.39       4239.326              49          15
          16   622.8549       4862.181      0.5408238    
          17   622.8549       5485.036      0.4988169    
          18   622.8549       6107.891      0.4597835    
          19   622.8549       6730.746      0.4235129    
          20   622.8549       7353.601      0.3898097    
          21   622.8549       7976.456      0.3584922    
          22   622.8549       8599.311      0.3293914    
          23   622.8549       9222.165      0.3023506    
          24   622.8549       9845.020      0.2772237    
          25   622.8549       10467.87      0.2538754    
          26   622.8549       11090.73      0.2321798    
          27   622.8549       11713.58      0.2120199    
          28   622.8549       12336.44      0.1932869    
          29   622.8549       12959.29      0.1758799    
          30   622.8549       13582.15      0.1597051    
          31   622.8549       14205.00      0.1446752    
          32   622.8549       14827.86      0.1307091    
          33   622.8549       15450.71      0.1177316    
          34   622.8549       16073.56      0.1056727    
          35   622.8549       16696.42      9.4467387E-02
          36   622.8549       17319.28      8.4055208E-02
          37   622.8549       17942.13      7.4380025E-02
          38   622.8549       18564.99      6.5389678E-02
          39   622.8549       19187.84      5.7035714E-02
          40   622.8549       19810.70      4.9273096E-02
          41   622.8549       20433.55      4.2059921E-02
          42   622.8549       21056.41      3.5357319E-02
          43   622.8549       21679.26      2.9129149E-02
          44   622.8549       22302.12      2.3341829E-02
          45   622.8549       22924.97      1.7964156E-02
          46   622.8549       23547.83      1.2967140E-02
          47   622.8549       24170.69      8.3238250E-03
          48   622.8549       24793.54      4.0091975E-03
          49   622.8549       25416.40     -3.8429313E-08
    1.0000    0.9938    0.9860    0.9760    0.9636    0.9481    0.9291    0.9062    0.8789    0.8472
    0.8111    0.7709    0.7275    0.6818    0.6345    0.5860    0.5408    0.4988    0.4598    0.4235
    0.3898    0.3585    0.3294    0.3024    0.2772    0.2539    0.2322    0.2120    0.1933    0.1759
    0.1597    0.1447    0.1307    0.1177    0.1057    0.0945    0.0841    0.0744    0.0654    0.0570
    0.0493    0.0421    0.0354    0.0291    0.0233    0.0180    0.0130    0.0083    0.0040    0.0000
Full level index =    1     Height =     0.0 m
Full level index =    2     Height =    50.0 m      Thickness =   50.0 m
Full level index =    3     Height =   113.9 m      Thickness =   63.9 m
Full level index =    4     Height =   195.2 m      Thickness =   81.3 m
Full level index =    5     Height =   298.0 m      Thickness =  102.8 m
Full level index =    6     Height =   427.2 m      Thickness =  129.1 m
Full level index =    7     Height =   587.8 m      Thickness =  160.7 m
Full level index =    8     Height =   785.5 m      Thickness =  197.7 m
Full level index =    9     Height =  1025.6 m      Thickness =  240.0 m
Full level index =   10     Height =  1312.6 m      Thickness =  287.0 m
Full level index =   11     Height =  1649.6 m      Thickness =  337.0 m
Full level index =   12     Height =  2037.7 m      Thickness =  388.2 m
Full level index =   13     Height =  2475.6 m      Thickness =  437.9 m
Full level index =   14     Height =  2959.3 m      Thickness =  483.7 m
Full level index =   15     Height =  3485.1 m      Thickness =  525.8 m
Full level index =   16     Height =  4056.1 m      Thickness =  570.9 m
Full level index =   17     Height =  4621.1 m      Thickness =  565.1 m
Full level index =   18     Height =  5178.3 m      Thickness =  557.2 m
Full level index =   19     Height =  5727.6 m      Thickness =  549.3 m
Full level index =   20     Height =  6269.1 m      Thickness =  541.4 m
Full level index =   21     Height =  6802.6 m      Thickness =  533.6 m
Full level index =   22     Height =  7328.3 m      Thickness =  525.7 m
Full level index =   23     Height =  7846.1 m      Thickness =  517.8 m
Full level index =   24     Height =  8356.0 m      Thickness =  509.9 m
Full level index =   25     Height =  8858.0 m      Thickness =  502.0 m
Full level index =   26     Height =  9352.2 m      Thickness =  494.1 m
Full level index =   27     Height =  9838.5 m      Thickness =  486.3 m
Full level index =   28     Height = 10316.8 m      Thickness =  478.4 m
Full level index =   29     Height = 10787.4 m      Thickness =  470.5 m
Full level index =   30     Height = 11250.0 m      Thickness =  462.6 m
Full level index =   31     Height = 11704.7 m      Thickness =  454.7 m
Full level index =   32     Height = 12151.6 m      Thickness =  446.9 m
Full level index =   33     Height = 12590.6 m      Thickness =  439.0 m
Full level index =   34     Height = 13021.7 m      Thickness =  431.1 m
Full level index =   35     Height = 13451.1 m      Thickness =  429.4 m
Full level index =   36     Height = 13880.4 m      Thickness =  429.4 m
Full level index =   37     Height = 14309.8 m      Thickness =  429.4 m
Full level index =   38     Height = 14739.1 m      Thickness =  429.4 m
Full level index =   39     Height = 15168.5 m      Thickness =  429.4 m
Full level index =   40     Height = 15597.9 m      Thickness =  429.4 m
Full level index =   41     Height = 16027.2 m      Thickness =  429.4 m
Full level index =   42     Height = 16456.6 m      Thickness =  429.4 m
Full level index =   43     Height = 16886.0 m      Thickness =  429.4 m
Full level index =   44     Height = 17315.3 m      Thickness =  429.4 m
Full level index =   45     Height = 17744.7 m      Thickness =  429.4 m
Full level index =   46     Height = 18174.0 m      Thickness =  429.4 m
Full level index =   47     Height = 18603.4 m      Thickness =  429.4 m
Full level index =   48     Height = 19032.8 m      Thickness =  429.4 m
Full level index =   49     Height = 19462.1 m      Thickness =  429.4 m
Full level index =   50     Height = 19891.5 m      Thickness =  429.4 m
d01 2021-01-01_00:00:00 No average surface temperature for use with inland lakes
 Assume Noah LSM input
         369           1  water and category            7 
  both at 50%, landmask is   0.0000000E+00
         934           3  water and category           16 
  both at 50%, landmask is   0.0000000E+00
         339          24  water and category           16 
  both at 50%, landmask is   0.0000000E+00
         312          27  water and category            6 
  both at 50%, landmask is   0.0000000E+00
         315          28  water and category            7 
  both at 50%, landmask is   0.0000000E+00
         330          29  water and category            2 
  both at 50%, landmask is   0.0000000E+00
         411          29  water and category            7 
  both at 50%, landmask is   0.0000000E+00
         929          38  water and category           16 
  both at 50%, landmask is   0.0000000E+00
         303          40  water and category            5 
  both at 50%, landmask is   0.0000000E+00
         929          46  water and category           16 
  both at 50%, landmask is   0.0000000E+00
         387          47  water and category            7 
  both at 50%, landmask is   0.0000000E+00
         411          53  water and category           13 
  both at 50%, landmask is   0.0000000E+00
         928          53  water and category           16 
  both at 50%, landmask is   0.0000000E+00
         413          54  water and category           13 
  both at 50%, landmask is   0.0000000E+00
         998          54  water and category            7 
  both at 50%, landmask is   0.0000000E+00
         434          56  water and category           13 
  both at 50%, landmask is   0.0000000E+00
         921          57  water and category           13 
  both at 50%, landmask is   0.0000000E+00
         439          58  water and category            5 
  both at 50%, landmask is   0.0000000E+00
         914          61  water and category           13 
  both at 50%, landmask is   0.0000000E+00
         443          64  water and category           13 
  both at 50%, landmask is   0.0000000E+00
         445          67  water and category           16 
  both at 50%, landmask is   0.0000000E+00
         906          69  water and category            2 
  both at 50%, landmask is   0.0000000E+00
         874          74  water and category           10 
  both at 50%, landmask is   0.0000000E+00
         190          92  water and category            2 
  both at 50%, landmask is   0.0000000E+00
         496          92  water and category            7 
  both at 50%, landmask is   0.0000000E+00
         685          92  water and category           12 
  both at 50%, landmask is   0.0000000E+00
         902          92  water and category           16 
  both at 50%, landmask is   0.0000000E+00
         501          94  water and category            5 
  both at 50%, landmask is   0.0000000E+00
         514          94  water and category            2 
  both at 50%, landmask is   0.0000000E+00
         516          94  water and category           16 
  both at 50%, landmask is   0.0000000E+00
         685          94  water and category            6 
  both at 50%, landmask is   0.0000000E+00
         675          97  water and category           12 
  both at 50%, landmask is   0.0000000E+00
         910          97  water and category           16 
  both at 50%, landmask is   0.0000000E+00
         544          98  water and category            2 
  both at 50%, landmask is   0.0000000E+00
         678          98  water and category            1 
  both at 50%, landmask is   0.0000000E+00
         561          99  water and category           13 
  both at 50%, landmask is   0.0000000E+00
         621         101  water and category           12 
  both at 50%, landmask is   0.0000000E+00
         578         103  water and category           13 
  both at 50%, landmask is   0.0000000E+00
         579         103  water and category           13 
  both at 50%, landmask is   0.0000000E+00
         580         103  water and category           13 
  both at 50%, landmask is   0.0000000E+00
         824         103  water and category           12 
  both at 50%, landmask is   0.0000000E+00
         591         104  water and category           13 
  both at 50%, landmask is   0.0000000E+00
         592         104  water and category           13 
  both at 50%, landmask is   0.0000000E+00
         593         104  water and category           13 
  both at 50%, landmask is   0.0000000E+00
         850         104  water and category           11 
  both at 50%, landmask is   0.0000000E+00
         852         105  water and category            2 
  both at 50%, landmask is   0.0000000E+00
         585         106  water and category            2 
  both at 50%, landmask is   0.0000000E+00
         571         107  water and category           13 
  both at 50%, landmask is   0.0000000E+00
         572         107  water and category           13 
  both at 50%, landmask is   0.0000000E+00
         694         107  water and category           13 
  both at 50%, landmask is   0.0000000E+00
         695         107  water and category           13 
  both at 50%, landmask is   0.0000000E+00
         696         107  water and category           13 
  both at 50%, landmask is   0.0000000E+00
         699         108  water and category           13 
  both at 50%, landmask is   0.0000000E+00
         701         108  water and category           13 
  both at 50%, landmask is   0.0000000E+00
         226         111  water and category           16 
  both at 50%, landmask is   0.0000000E+00
         649         111  water and category            2 
  both at 50%, landmask is   0.0000000E+00
         744         112  water and category           13 
  both at 50%, landmask is   0.0000000E+00
         893         112  water and category           13 
  both at 50%, landmask is   0.0000000E+00
         746         113  water and category           13 
  both at 50%, landmask is   0.0000000E+00
         747         113  water and category           13 
  both at 50%, landmask is   0.0000000E+00
         780         113  water and category           13 
  both at 50%, landmask is   0.0000000E+00
         316         116  water and category           16 
  both at 50%, landmask is   0.0000000E+00
         801         117  water and category            1 
  both at 50%, landmask is   0.0000000E+00
         337         118  water and category            7 
  both at 50%, landmask is   0.0000000E+00
         775         118  water and category            1 
  both at 50%, landmask is   0.0000000E+00
         889         118  water and category           13 
  both at 50%, landmask is   0.0000000E+00
         269         120  water and category           16 
  both at 50%, landmask is   0.0000000E+00
         274         120  water and category           16 
  both at 50%, landmask is   0.0000000E+00
         820         120  water and category           11 
  both at 50%, landmask is   0.0000000E+00
         769         121  water and category            1 
  both at 50%, landmask is   0.0000000E+00
         720         122  water and category            1 
  both at 50%, landmask is   0.0000000E+00
         721         122  water and category            1 
  both at 50%, landmask is   0.0000000E+00
         828         123  water and category           16 
  both at 50%, landmask is   0.0000000E+00
         202         124  water and category            5 
  both at 50%, landmask is   0.0000000E+00
         202         126  water and category            5 
  both at 50%, landmask is   0.0000000E+00
         203         127  water and category            9 
  both at 50%, landmask is   0.0000000E+00
        1096         130  water and category           16 
  both at 50%, landmask is   0.0000000E+00
         864         131  water and category           12 
  both at 50%, landmask is   0.0000000E+00
         882         134  water and category            2 
  both at 50%, landmask is   0.0000000E+00
        1047         148  water and category           12 
  both at 50%, landmask is   0.0000000E+00
         257         150  water and category           12 
  both at 50%, landmask is   0.0000000E+00
         259         150  water and category           12 
  both at 50%, landmask is   0.0000000E+00
         156         151  water and category            6 
  both at 50%, landmask is   0.0000000E+00
         106         156  water and category            1 
  both at 50%, landmask is   0.0000000E+00
         410         159  water and category            7 
  both at 50%, landmask is   0.0000000E+00
         135         162  water and category           16 
  both at 50%, landmask is   0.0000000E+00
         313         163  water and category           12 
  both at 50%, landmask is   0.0000000E+00
        1010         164  water and category            6 
  both at 50%, landmask is   0.0000000E+00
         993         167  water and category           16 
  both at 50%, landmask is   0.0000000E+00
        1083         173  water and category           10 
  both at 50%, landmask is   0.0000000E+00
         960         184  water and category            6 
  both at 50%, landmask is   0.0000000E+00
         223         185  water and category           10 
  both at 50%, landmask is   0.0000000E+00
         400         185  water and category           12 
  both at 50%, landmask is   0.0000000E+00
         162         187  water and category           10 
  both at 50%, landmask is   0.0000000E+00
        1089         187  water and category            5 
  both at 50%, landmask is   0.0000000E+00
         425         189  water and category            7 
  both at 50%, landmask is   0.0000000E+00
         223         191  water and category            5 
  both at 50%, landmask is   0.0000000E+00
         425         191  water and category           16 
  both at 50%, landmask is   0.0000000E+00
         301         198  water and category           12 
  both at 50%, landmask is   0.0000000E+00
        1051         198  water and category            1 
  both at 50%, landmask is   0.0000000E+00
        1052         198  water and category            2 
  both at 50%, landmask is   0.0000000E+00
         369         200  water and category            7 
  both at 50%, landmask is   0.0000000E+00
        1063         201  water and category            1 
  both at 50%, landmask is   0.0000000E+00
         368         202  water and category            7 
  both at 50%, landmask is   0.0000000E+00
        1120         202  water and category            6 
  both at 50%, landmask is   0.0000000E+00
         352         203  water and category            7 
  both at 50%, landmask is   0.0000000E+00
         325         204  water and category            5 
  both at 50%, landmask is   0.0000000E+00
         452         211  water and category            2 
  both at 50%, landmask is   0.0000000E+00
        1110         211  water and category           13 
  both at 50%, landmask is   0.0000000E+00
         457         216  water and category            2 
  both at 50%, landmask is   0.0000000E+00
        1109         217  water and category            1 
  both at 50%, landmask is   0.0000000E+00
         503         219  water and category            1 
  both at 50%, landmask is   0.0000000E+00
         506         219  water and category           16 
  both at 50%, landmask is   0.0000000E+00
         134         220  water and category           10 
  both at 50%, landmask is   0.0000000E+00
         136         226  water and category           10 
  both at 50%, landmask is   0.0000000E+00
        1117         227  water and category           13 
  both at 50%, landmask is   0.0000000E+00
         138         228  water and category           10 
  both at 50%, landmask is   0.0000000E+00
        1074         232  water and category            1 
  both at 50%, landmask is   0.0000000E+00
         805         233  water and category           16 
  both at 50%, landmask is   0.0000000E+00
         573         234  water and category           11 
  both at 50%, landmask is   0.0000000E+00
         802         235  water and category            7 
  both at 50%, landmask is   0.0000000E+00
         420         239  water and category            7 
  both at 50%, landmask is   0.0000000E+00
         830         242  water and category           16 
  both at 50%, landmask is   0.0000000E+00
         396         243  water and category            7 
  both at 50%, landmask is   0.0000000E+00
        1125         247  water and category           13 
  both at 50%, landmask is   0.0000000E+00
         800         253  water and category            6 
  both at 50%, landmask is   0.0000000E+00
          62         255  water and category            6 
  both at 50%, landmask is   0.0000000E+00
          64         255  water and category           16 
  both at 50%, landmask is   0.0000000E+00
         233         256  water and category           11 
  both at 50%, landmask is   0.0000000E+00
          67         257  water and category           13 
  both at 50%, landmask is   0.0000000E+00
          51         260  water and category            1 
  both at 50%, landmask is   0.0000000E+00
         802         260  water and category           11 
  both at 50%, landmask is   0.0000000E+00
         246         265  water and category           11 
  both at 50%, landmask is   0.0000000E+00
         592         266  water and category            1 
  both at 50%, landmask is   0.0000000E+00
         245         267  water and category            1 
  both at 50%, landmask is   0.0000000E+00
         411         269  water and category            7 
  both at 50%, landmask is   0.0000000E+00
         610         274  water and category            2 
  both at 50%, landmask is   0.0000000E+00
        1137         276  water and category            5 
  both at 50%, landmask is   0.0000000E+00
         430         278  water and category           12 
  both at 50%, landmask is   0.0000000E+00
         801         280  water and category           12 
  both at 50%, landmask is   0.0000000E+00
         623         282  water and category           13 
  both at 50%, landmask is   0.0000000E+00
         340         284  water and category           12 
  both at 50%, landmask is   0.0000000E+00
         274         288  water and category            7 
  both at 50%, landmask is   0.0000000E+00
         183         292  water and category            5 
  both at 50%, landmask is   0.0000000E+00
         144         295  water and category            8 
  both at 50%, landmask is   0.0000000E+00
         464         296  water and category           13 
  both at 50%, landmask is   0.0000000E+00
         111         304  water and category            1 
  both at 50%, landmask is   0.0000000E+00
         234         307  water and category            5 
  both at 50%, landmask is   0.0000000E+00
         235         307  water and category            8 
  both at 50%, landmask is   0.0000000E+00
         796         308  water and category            1 
  both at 50%, landmask is   0.0000000E+00
        1081         311  water and category            2 
  both at 50%, landmask is   0.0000000E+00
        1098         312  water and category            2 
  both at 50%, landmask is   0.0000000E+00
         351         313  water and category           12 
  both at 50%, landmask is   0.0000000E+00
         345         314  water and category           12 
  both at 50%, landmask is   0.0000000E+00
         347         315  water and category            7 
  both at 50%, landmask is   0.0000000E+00
        1078         315  water and category            1 
  both at 50%, landmask is   0.0000000E+00
         366         316  water and category            1 
  both at 50%, landmask is   0.0000000E+00
         366         317  water and category            1 
  both at 50%, landmask is   0.0000000E+00
        1075         317  water and category            7 
  both at 50%, landmask is   0.0000000E+00
        1209         319  water and category            6 
  both at 50%, landmask is   0.0000000E+00
        1210         322  water and category            2 
  both at 50%, landmask is   0.0000000E+00
         484         323  water and category            5 
  both at 50%, landmask is   0.0000000E+00
         483         325  water and category           13 
  both at 50%, landmask is   0.0000000E+00
         205         327  water and category            1 
  both at 50%, landmask is   0.0000000E+00
        1118         330  water and category           12 
  both at 50%, landmask is   0.0000000E+00
         849         331  water and category            6 
  both at 50%, landmask is   0.0000000E+00
         849         332  water and category            1 
  both at 50%, landmask is   0.0000000E+00
         810         333  water and category           13 
  both at 50%, landmask is   0.0000000E+00
         846         336  water and category            1 
  both at 50%, landmask is   0.0000000E+00
         497         338  water and category           13 
  both at 50%, landmask is   0.0000000E+00
         498         338  water and category           13 
  both at 50%, landmask is   0.0000000E+00
          91         340  water and category           16 
  both at 50%, landmask is   0.0000000E+00
         505         340  water and category           13 
  both at 50%, landmask is   0.0000000E+00
        1172         340  water and category           16 
  both at 50%, landmask is   0.0000000E+00
         507         341  water and category           13 
  both at 50%, landmask is   0.0000000E+00
        1175         341  water and category            6 
  both at 50%, landmask is   0.0000000E+00
        1176         341  water and category           16 
  both at 50%, landmask is   0.0000000E+00
         312         342  water and category            1 
  both at 50%, landmask is   0.0000000E+00
        1058         342  water and category           13 
  both at 50%, landmask is   0.0000000E+00
        1021         343  water and category           13 
  both at 50%, landmask is   0.0000000E+00
         517         344  water and category           13 
  both at 50%, landmask is   0.0000000E+00
         519         344  water and category           13 
  both at 50%, landmask is   0.0000000E+00
         525         345  water and category           13 
  both at 50%, landmask is   0.0000000E+00
         308         347  water and category            5 
  both at 50%, landmask is   0.0000000E+00
         825         347  water and category            1 
  both at 50%, landmask is   0.0000000E+00
        1027         347  water and category           13 
  both at 50%, landmask is   0.0000000E+00
        1032         347  water and category           13 
  both at 50%, landmask is   0.0000000E+00
        1038         347  water and category           13 
  both at 50%, landmask is   0.0000000E+00
         521         348  water and category           13 
  both at 50%, landmask is   0.0000000E+00
         534         348  water and category           13 
  both at 50%, landmask is   0.0000000E+00
         535         348  water and category           13 
  both at 50%, landmask is   0.0000000E+00
         538         348  water and category           13 
  both at 50%, landmask is   0.0000000E+00
         476         349  water and category           13 
  both at 50%, landmask is   0.0000000E+00
        1025         349  water and category           13 
  both at 50%, landmask is   0.0000000E+00
        1036         349  water and category           13 
  both at 50%, landmask is   0.0000000E+00
        1152         349  water and category           13 
  both at 50%, landmask is   0.0000000E+00
        1125         350  water and category           12 
  both at 50%, landmask is   0.0000000E+00
         457         353  water and category            7 
  both at 50%, landmask is   0.0000000E+00
         412         355  water and category            7 
  both at 50%, landmask is   0.0000000E+00
         105         356  water and category            5 
  both at 50%, landmask is   0.0000000E+00
         464         358  water and category            6 
  both at 50%, landmask is   0.0000000E+00
        1189         358  water and category           13 
  both at 50%, landmask is   0.0000000E+00
         549         359  water and category           13 
  both at 50%, landmask is   0.0000000E+00
         448         360  water and category            7 
  both at 50%, landmask is   0.0000000E+00
        1186         362  water and category           13 
  both at 50%, landmask is   0.0000000E+00
         820         363  water and category            1 
  both at 50%, landmask is   0.0000000E+00
         559         364  water and category           13 
  both at 50%, landmask is   0.0000000E+00
         566         367  water and category           13 
  both at 50%, landmask is   0.0000000E+00
         210         368  water and category           10 
  both at 50%, landmask is   0.0000000E+00
         568         368  water and category           13 
  both at 50%, landmask is   0.0000000E+00
        1058         368  water and category           12 
  both at 50%, landmask is   0.0000000E+00
        1161         370  water and category           16 
  both at 50%, landmask is   0.0000000E+00
         314         374  water and category           12 
  both at 50%, landmask is   0.0000000E+00
        1153         375  water and category           13 
  both at 50%, landmask is   0.0000000E+00
         805         377  water and category            1 
  both at 50%, landmask is   0.0000000E+00
         962         377  water and category           13 
  both at 50%, landmask is   0.0000000E+00
         582         378  water and category           13 
  both at 50%, landmask is   0.0000000E+00
        1146         378  water and category           13 
  both at 50%, landmask is   0.0000000E+00
        1141         379  water and category           13 
  both at 50%, landmask is   0.0000000E+00
         807         381  water and category            1 
  both at 50%, landmask is   0.0000000E+00
        1035         381  water and category           12 
  both at 50%, landmask is   0.0000000E+00
        1133         381  water and category           13 
  both at 50%, landmask is   0.0000000E+00
        1128         382  water and category           13 
  both at 50%, landmask is   0.0000000E+00
         216         383  water and category            7 
  both at 50%, landmask is   0.0000000E+00
        1121         384  water and category           13 
  both at 50%, landmask is   0.0000000E+00
        1244         384  water and category           10 
  both at 50%, landmask is   0.0000000E+00
         481         386  water and category            5 
  both at 50%, landmask is   0.0000000E+00
        1242         386  water and category           16 
  both at 50%, landmask is   0.0000000E+00
         551         387  water and category            5 
  both at 50%, landmask is   0.0000000E+00
         104         388  water and category           13 
  both at 50%, landmask is   0.0000000E+00
         216         388  water and category            1 
  both at 50%, landmask is   0.0000000E+00
         948         388  water and category           13 
  both at 50%, landmask is   0.0000000E+00
        1103         388  water and category           13 
  both at 50%, landmask is   0.0000000E+00
        1104         389  water and category           13 
  both at 50%, landmask is   0.0000000E+00
        1103         390  water and category           13 
  both at 50%, landmask is   0.0000000E+00
         946         391  water and category           13 
  both at 50%, landmask is   0.0000000E+00
         104         392  water and category           13 
  both at 50%, landmask is   0.0000000E+00
         805         393  water and category            1 
  both at 50%, landmask is   0.0000000E+00
         582         395  water and category           13 
  both at 50%, landmask is   0.0000000E+00
         836         395  water and category           11 
  both at 50%, landmask is   0.0000000E+00
         583         400  water and category           13 
  both at 50%, landmask is   0.0000000E+00
         225         401  water and category            7 
  both at 50%, landmask is   0.0000000E+00
         467         401  water and category            1 
  both at 50%, landmask is   0.0000000E+00
         930         402  water and category           13 
  both at 50%, landmask is   0.0000000E+00
         392         404  water and category           12 
  both at 50%, landmask is   0.0000000E+00
         799         404  water and category            1 
  both at 50%, landmask is   0.0000000E+00
        1241         404  water and category           12 
  both at 50%, landmask is   0.0000000E+00
         351         406  water and category            5 
  both at 50%, landmask is   0.0000000E+00
         803         406  water and category            1 
  both at 50%, landmask is   0.0000000E+00
         943         408  water and category           13 
  both at 50%, landmask is   0.0000000E+00
         798         411  water and category            1 
  both at 50%, landmask is   0.0000000E+00
        1071         411  water and category           16 
  both at 50%, landmask is   0.0000000E+00
        1074         411  water and category           11 
  both at 50%, landmask is   0.0000000E+00
         900         412  water and category            1 
  both at 50%, landmask is   0.0000000E+00
        1078         414  water and category            6 
  both at 50%, landmask is   0.0000000E+00
         200         415  water and category            1 
  both at 50%, landmask is   0.0000000E+00
        1056         415  water and category           13 
  both at 50%, landmask is   0.0000000E+00
        1085         415  water and category            6 
  both at 50%, landmask is   0.0000000E+00
        1086         415  water and category            6 
  both at 50%, landmask is   0.0000000E+00
         579         420  water and category           13 
  both at 50%, landmask is   0.0000000E+00
         909         420  water and category            2 
  both at 50%, landmask is   0.0000000E+00
         898         421  water and category            1 
  both at 50%, landmask is   0.0000000E+00
         905         421  water and category            1 
  both at 50%, landmask is   0.0000000E+00
         579         424  water and category           13 
  both at 50%, landmask is   0.0000000E+00
         442         426  water and category            5 
  both at 50%, landmask is   0.0000000E+00
         442         427  water and category            5 
  both at 50%, landmask is   0.0000000E+00
         500         429  water and category            5 
  both at 50%, landmask is   0.0000000E+00
         105         435  water and category            1 
  both at 50%, landmask is   0.0000000E+00
         383         436  water and category           12 
  both at 50%, landmask is   0.0000000E+00
         930         436  water and category            5 
  both at 50%, landmask is   0.0000000E+00
         407         438  water and category            5 
  both at 50%, landmask is   0.0000000E+00
         888         438  water and category            7 
  both at 50%, landmask is   0.0000000E+00
        1019         438  water and category           13 
  both at 50%, landmask is   0.0000000E+00
         332         441  water and category           10 
  both at 50%, landmask is   0.0000000E+00
         326         443  water and category            5 
  both at 50%, landmask is   0.0000000E+00
         715         444  water and category            1 
  both at 50%, landmask is   0.0000000E+00
        1014         444  water and category           13 
  both at 50%, landmask is   0.0000000E+00
         828         447  water and category            1 
  both at 50%, landmask is   0.0000000E+00
         829         447  water and category            1 
  both at 50%, landmask is   0.0000000E+00
        1230         447  water and category           12 
  both at 50%, landmask is   0.0000000E+00
        1212         448  water and category            1 
  both at 50%, landmask is   0.0000000E+00
        1211         449  water and category            1 
  both at 50%, landmask is   0.0000000E+00
         587         451  water and category           13 
  both at 50%, landmask is   0.0000000E+00
         673         451  water and category           16 
  both at 50%, landmask is   0.0000000E+00
         873         451  water and category            5 
  both at 50%, landmask is   0.0000000E+00
        1008         454  water and category           13 
  both at 50%, landmask is   0.0000000E+00
         274         455  water and category           12 
  both at 50%, landmask is   0.0000000E+00
         597         455  water and category           13 
  both at 50%, landmask is   0.0000000E+00
         598         455  water and category           13 
  both at 50%, landmask is   0.0000000E+00
         304         456  water and category           14 
  both at 50%, landmask is   0.0000000E+00
         600         457  water and category           13 
  both at 50%, landmask is   0.0000000E+00
        1197         458  water and category            1 
  both at 50%, landmask is   0.0000000E+00
         109         459  water and category           11 
  both at 50%, landmask is   0.0000000E+00
        1006         459  water and category           13 
  both at 50%, landmask is   0.0000000E+00
         642         460  water and category           16 
  both at 50%, landmask is   0.0000000E+00
        1187         460  water and category            1 
  both at 50%, landmask is   0.0000000E+00
         605         461  water and category           13 
  both at 50%, landmask is   0.0000000E+00
         654         463  water and category           16 
  both at 50%, landmask is   0.0000000E+00
         664         463  water and category           13 
  both at 50%, landmask is   0.0000000E+00
         634         464  water and category           13 
  both at 50%, landmask is   0.0000000E+00
         665         465  water and category           13 
  both at 50%, landmask is   0.0000000E+00
        1123         465  water and category            7 
  both at 50%, landmask is   0.0000000E+00
        1121         467  water and category            1 
  both at 50%, landmask is   0.0000000E+00
         622         469  water and category           13 
  both at 50%, landmask is   0.0000000E+00
        1168         469  water and category            1 
  both at 50%, landmask is   0.0000000E+00
         391         470  water and category            1 
  both at 50%, landmask is   0.0000000E+00
         615         470  water and category           13 
  both at 50%, landmask is   0.0000000E+00
         620         470  water and category           13 
  both at 50%, landmask is   0.0000000E+00
         736         470  water and category            1 
  both at 50%, landmask is   0.0000000E+00
         868         470  water and category           13 
  both at 50%, landmask is   0.0000000E+00
         616         471  water and category           13 
  both at 50%, landmask is   0.0000000E+00
         628         471  water and category           12 
  both at 50%, landmask is   0.0000000E+00
         359         473  water and category            1 
  both at 50%, landmask is   0.0000000E+00
         629         474  water and category            5 
  both at 50%, landmask is   0.0000000E+00
         332         476  water and category            1 
  both at 50%, landmask is   0.0000000E+00
         348         476  water and category            1 
  both at 50%, landmask is   0.0000000E+00
         349         476  water and category            1 
  both at 50%, landmask is   0.0000000E+00
        1111         477  water and category            1 
  both at 50%, landmask is   0.0000000E+00
        1115         478  water and category            1 
  both at 50%, landmask is   0.0000000E+00
        1203         478  water and category           14 
  both at 50%, landmask is   0.0000000E+00
          98         479  water and category            1 
  both at 50%, landmask is   0.0000000E+00
         295         479  water and category            1 
  both at 50%, landmask is   0.0000000E+00
         298         479  water and category            1 
  both at 50%, landmask is   0.0000000E+00
         285         480  water and category            1 
  both at 50%, landmask is   0.0000000E+00
         286         480  water and category            1 
  both at 50%, landmask is   0.0000000E+00
         996         480  water and category           13 
  both at 50%, landmask is   0.0000000E+00
         109         482  water and category            1 
  both at 50%, landmask is   0.0000000E+00
         310         482  water and category            1 
  both at 50%, landmask is   0.0000000E+00
         995         482  water and category           13 
  both at 50%, landmask is   0.0000000E+00
         273         484  water and category           11 
  both at 50%, landmask is   0.0000000E+00
         758         485  water and category           13 
  both at 50%, landmask is   0.0000000E+00
        1100         485  water and category            1 
  both at 50%, landmask is   0.0000000E+00
        1101         487  water and category            1 
  both at 50%, landmask is   0.0000000E+00
        1104         488  water and category            1 
  both at 50%, landmask is   0.0000000E+00
        1124         488  water and category            1 
  both at 50%, landmask is   0.0000000E+00
        1127         488  water and category            1 
  both at 50%, landmask is   0.0000000E+00
         100         489  water and category            5 
  both at 50%, landmask is   0.0000000E+00
         410         489  water and category            1 
  both at 50%, landmask is   0.0000000E+00
         776         493  water and category           13 
  both at 50%, landmask is   0.0000000E+00
        1101         493  water and category            1 
  both at 50%, landmask is   0.0000000E+00
        1101         496  water and category            1 
  both at 50%, landmask is   0.0000000E+00
         121         497  water and category            1 
  both at 50%, landmask is   0.0000000E+00
        1105         498  water and category            2 
  both at 50%, landmask is   0.0000000E+00
        1110         498  water and category            1 
  both at 50%, landmask is   0.0000000E+00
         843         505  water and category           11 
  both at 50%, landmask is   0.0000000E+00
         642         512  water and category           12 
  both at 50%, landmask is   0.0000000E+00
         150         513  water and category            1 
  both at 50%, landmask is   0.0000000E+00
         153         514  water and category            1 
  both at 50%, landmask is   0.0000000E+00
         943         518  water and category           13 
  both at 50%, landmask is   0.0000000E+00
        1051         518  water and category            1 
  both at 50%, landmask is   0.0000000E+00
        1066         518  water and category            7 
  both at 50%, landmask is   0.0000000E+00
         942         519  water and category           13 
  both at 50%, landmask is   0.0000000E+00
        1054         519  water and category           11 
  both at 50%, landmask is   0.0000000E+00
         807         520  water and category           13 
  both at 50%, landmask is   0.0000000E+00
        1058         521  water and category           13 
  both at 50%, landmask is   0.0000000E+00
        1103         521  water and category           14 
  both at 50%, landmask is   0.0000000E+00
        1044         523  water and category            1 
  both at 50%, landmask is   0.0000000E+00
        1139         525  water and category            4 
  both at 50%, landmask is   0.0000000E+00
        1140         525  water and category            4 
  both at 50%, landmask is   0.0000000E+00
         422         526  water and category            1 
  both at 50%, landmask is   0.0000000E+00
         418         527  water and category            1 
  both at 50%, landmask is   0.0000000E+00
         422         527  water and category            1 
  both at 50%, landmask is   0.0000000E+00
         419         528  water and category            1 
  both at 50%, landmask is   0.0000000E+00
        1036         531  water and category            1 
  both at 50%, landmask is   0.0000000E+00
        1033         534  water and category            1 
  both at 50%, landmask is   0.0000000E+00
         451         535  water and category           12 
  both at 50%, landmask is   0.0000000E+00
         567         535  water and category            5 
  both at 50%, landmask is   0.0000000E+00
        1028         539  water and category            1 
  both at 50%, landmask is   0.0000000E+00
        1021         543  water and category            1 
  both at 50%, landmask is   0.0000000E+00
        1014         548  water and category            1 
  both at 50%, landmask is   0.0000000E+00
        1042         548  water and category            7 
  both at 50%, landmask is   0.0000000E+00
        1021         549  water and category            1 
  both at 50%, landmask is   0.0000000E+00
         796         550  water and category           12 
  both at 50%, landmask is   0.0000000E+00
        1015         550  water and category            1 
  both at 50%, landmask is   0.0000000E+00
         936         552  water and category           16 
  both at 50%, landmask is   0.0000000E+00
        1016         552  water and category            1 
  both at 50%, landmask is   0.0000000E+00
         797         553  water and category           12 
  both at 50%, landmask is   0.0000000E+00
         870         554  water and category           12 
  both at 50%, landmask is   0.0000000E+00
         626         555  water and category            5 
  both at 50%, landmask is   0.0000000E+00
         929         555  water and category           12 
  both at 50%, landmask is   0.0000000E+00
         420         556  water and category            1 
  both at 50%, landmask is   0.0000000E+00
         803         556  water and category           12 
  both at 50%, landmask is   0.0000000E+00
        1012         556  water and category            1 
  both at 50%, landmask is   0.0000000E+00
         807         557  water and category           12 
  both at 50%, landmask is   0.0000000E+00
         848         557  water and category           12 
  both at 50%, landmask is   0.0000000E+00
         821         559  water and category           13 
  both at 50%, landmask is   0.0000000E+00
         827         559  water and category           12 
  both at 50%, landmask is   0.0000000E+00
         846         559  water and category           12 
  both at 50%, landmask is   0.0000000E+00
         870         560  water and category           12 
  both at 50%, landmask is   0.0000000E+00
         918         560  water and category           12 
  both at 50%, landmask is   0.0000000E+00
         440         561  water and category           13 
  both at 50%, landmask is   0.0000000E+00
         813         561  water and category           12 
  both at 50%, landmask is   0.0000000E+00
         877         561  water and category           12 
  both at 50%, landmask is   0.0000000E+00
         888         561  water and category           12 
  both at 50%, landmask is   0.0000000E+00
         889         561  water and category           12 
  both at 50%, landmask is   0.0000000E+00
         440         562  water and category            5 
  both at 50%, landmask is   0.0000000E+00
         933         563  water and category            2 
  both at 50%, landmask is   0.0000000E+00
        1028         566  water and category            7 
  both at 50%, landmask is   0.0000000E+00
         805         567  water and category            5 
  both at 50%, landmask is   0.0000000E+00
        1011         567  water and category            1 
  both at 50%, landmask is   0.0000000E+00
         730         569  water and category            7 
  both at 50%, landmask is   0.0000000E+00
        1024         570  water and category            7 
  both at 50%, landmask is   0.0000000E+00
        1025         571  water and category            7 
  both at 50%, landmask is   0.0000000E+00
         800         572  water and category           13 
  both at 50%, landmask is   0.0000000E+00
         685         577  water and category            4 
  both at 50%, landmask is   0.0000000E+00
         798         577  water and category           13 
  both at 50%, landmask is   0.0000000E+00
         743         578  water and category            7 
  both at 50%, landmask is   0.0000000E+00
         927         579  water and category            1 
  both at 50%, landmask is   0.0000000E+00
         931         580  water and category            1 
  both at 50%, landmask is   0.0000000E+00
         931         586  water and category           13 
  both at 50%, landmask is   0.0000000E+00
         841         591  water and category           13 
  both at 50%, landmask is   0.0000000E+00
         844         592  water and category            5 
  both at 50%, landmask is   0.0000000E+00
        1215         592  water and category            4 
  both at 50%, landmask is   0.0000000E+00
         699         593  water and category            5 
  both at 50%, landmask is   0.0000000E+00
         697         596  water and category           13 
  both at 50%, landmask is   0.0000000E+00
         871         596  water and category            1 
  both at 50%, landmask is   0.0000000E+00
         872         598  water and category            1 
  both at 50%, landmask is   0.0000000E+00
         981         598  water and category            5 
  both at 50%, landmask is   0.0000000E+00
        1237         598  water and category           13 
  both at 50%, landmask is   0.0000000E+00
        1171         600  water and category           12 
  both at 50%, landmask is   0.0000000E+00
         959         602  water and category           13 
  both at 50%, landmask is   0.0000000E+00
         965         606  water and category           16 
  both at 50%, landmask is   0.0000000E+00
         807         607  water and category            1 
  both at 50%, landmask is   0.0000000E+00
         806         608  water and category            5 
  both at 50%, landmask is   0.0000000E+00
         807         608  water and category           10 
  both at 50%, landmask is   0.0000000E+00
        1234         609  water and category           12 
  both at 50%, landmask is   0.0000000E+00
         725         610  water and category            7 
  both at 50%, landmask is   0.0000000E+00
         815         612  water and category            1 
  both at 50%, landmask is   0.0000000E+00
         816         613  water and category            1 
  both at 50%, landmask is   0.0000000E+00
        1191         614  water and category           12 
  both at 50%, landmask is   0.0000000E+00
        1198         614  water and category           12 
  both at 50%, landmask is   0.0000000E+00
        1205         615  water and category           12 
  both at 50%, landmask is   0.0000000E+00
        1225         617  water and category           12 
  both at 50%, landmask is   0.0000000E+00
         416         621  water and category            1 
  both at 50%, landmask is   0.0000000E+00
         831         622  water and category            7 
  both at 50%, landmask is   0.0000000E+00
         701         623  water and category           13 
  both at 50%, landmask is   0.0000000E+00
         765         630  water and category            5 
  both at 50%, landmask is   0.0000000E+00
         850         632  water and category            7 
  both at 50%, landmask is   0.0000000E+00
         732         636  water and category            5 
  both at 50%, landmask is   0.0000000E+00
         848         639  water and category            7 
  both at 50%, landmask is   0.0000000E+00
         754         640  water and category            5 
  both at 50%, landmask is   0.0000000E+00
         754         642  water and category            1 
  both at 50%, landmask is   0.0000000E+00
         717         646  water and category            1 
  both at 50%, landmask is   0.0000000E+00
         718         646  water and category            5 
  both at 50%, landmask is   0.0000000E+00
         407         649  water and category           12 
  both at 50%, landmask is   0.0000000E+00
         408         649  water and category           12 
  both at 50%, landmask is   0.0000000E+00
         841         655  water and category           15 
  both at 50%, landmask is   0.0000000E+00
         583         656  water and category            5 
  both at 50%, landmask is   0.0000000E+00
         991         657  water and category            5 
  both at 50%, landmask is   0.0000000E+00
         778         661  water and category            1 
  both at 50%, landmask is   0.0000000E+00
        1203         663  water and category           12 
  both at 50%, landmask is   0.0000000E+00
         968         664  water and category            1 
  both at 50%, landmask is   0.0000000E+00
         770         665  water and category            1 
  both at 50%, landmask is   0.0000000E+00
         769         666  water and category            1 
  both at 50%, landmask is   0.0000000E+00
         879         669  water and category            7 
  both at 50%, landmask is   0.0000000E+00
         797         672  water and category            5 
  both at 50%, landmask is   0.0000000E+00
         423         678  water and category           13 
  both at 50%, landmask is   0.0000000E+00
         425         679  water and category           12 
  both at 50%, landmask is   0.0000000E+00
         501         679  water and category           13 
  both at 50%, landmask is   0.0000000E+00
         436         680  water and category           12 
  both at 50%, landmask is   0.0000000E+00
        1165         680  water and category           12 
  both at 50%, landmask is   0.0000000E+00
         459         682  water and category           12 
  both at 50%, landmask is   0.0000000E+00
         817         687  water and category            1 
  both at 50%, landmask is   0.0000000E+00
         818         687  water and category            1 
  both at 50%, landmask is   0.0000000E+00
         373         692  water and category            1 
  both at 50%, landmask is   0.0000000E+00
        1134         698  water and category           12 
  both at 50%, landmask is   0.0000000E+00
         349         701  water and category            2 
  both at 50%, landmask is   0.0000000E+00
         768         702  water and category            1 
  both at 50%, landmask is   0.0000000E+00
         349         705  water and category            1 
  both at 50%, landmask is   0.0000000E+00
         434         722  water and category           12 
  both at 50%, landmask is   0.0000000E+00
         630         722  water and category           12 
  both at 50%, landmask is   0.0000000E+00
         631         724  water and category            5 
  both at 50%, landmask is   0.0000000E+00
        1076         728  water and category            1 
  both at 50%, landmask is   0.0000000E+00
        1077         731  water and category           12 
  both at 50%, landmask is   0.0000000E+00
        1077         732  water and category           12 
  both at 50%, landmask is   0.0000000E+00
        1156         747  water and category            4 
  both at 50%, landmask is   0.0000000E+00
         299         748  water and category            1 
  both at 50%, landmask is   0.0000000E+00
d01 2021-01-01_00:00:00 forcing artificial silty clay loam at 5469 points, out of 935501
 LAND  CHANGE =            0
 WATER CHANGE =            0
d01 2021-01-01_00:00:00 Timing for processing         41 s.
d01 2021-01-01_00:00:00 Timing for output         15 s.
d01 2021-01-01_00:00:00 Timing for loop #    1 =         59 s.
  
 -----------------------------------------------------------------------------
  
 Domain  1: Current date being processed: 2021-01-01_06:00:00.0000, which is loop #   2 out of    4
 configflags%julyr, %julday, %gmt:        2021           1   6.000000    
d01 2021-01-01_06:00:00  Yes, this special data is acceptable to use: OUTPUT FROM METGRID V4.2
d01 2021-01-01_06:00:00  Input data is acceptable to use: met_em.d01.2021-01-01_06:00:00.nc
 metgrid input_wrf.F first_date_input = 2021-01-01_06:00:00
 metgrid input_wrf.F first_date_nml = 2021-01-01_00:00:00
d01 2021-01-01_06:00:00 Timing for input          2 s.
d01 2021-01-01_06:00:00          flag_soil_layers read from met_em file is  1
Using sfcprs  to compute psfc
d01 2021-01-01_06:00:00 No average surface temperature for use with inland lakes
 Assume Noah LSM input
         369           1  water and category            7 
  both at 50%, landmask is   0.0000000E+00
         934           3  water and category           16 
  both at 50%, landmask is   0.0000000E+00
         339          24  water and category           16 
  both at 50%, landmask is   0.0000000E+00
         312          27  water and category            6 
  both at 50%, landmask is   0.0000000E+00
         315          28  water and category            7 
  both at 50%, landmask is   0.0000000E+00
         330          29  water and category            2 
  both at 50%, landmask is   0.0000000E+00
         411          29  water and category            7 
  both at 50%, landmask is   0.0000000E+00
         929          38  water and category           16 
  both at 50%, landmask is   0.0000000E+00
         303          40  water and category            5 
  both at 50%, landmask is   0.0000000E+00
         929          46  water and category           16 
  both at 50%, landmask is   0.0000000E+00
         387          47  water and category            7 
  both at 50%, landmask is   0.0000000E+00
         411          53  water and category           13 
  both at 50%, landmask is   0.0000000E+00
         928          53  water and category           16 
  both at 50%, landmask is   0.0000000E+00
         413          54  water and category           13 
  both at 50%, landmask is   0.0000000E+00
         998          54  water and category            7 
  both at 50%, landmask is   0.0000000E+00
         434          56  water and category           13 
  both at 50%, landmask is   0.0000000E+00
         921          57  water and category           13 
  both at 50%, landmask is   0.0000000E+00
         439          58  water and category            5 
  both at 50%, landmask is   0.0000000E+00
         914          61  water and category           13 
  both at 50%, landmask is   0.0000000E+00
         443          64  water and category           13 
  both at 50%, landmask is   0.0000000E+00
         445          67  water and category           16 
  both at 50%, landmask is   0.0000000E+00
         906          69  water and category            2 
  both at 50%, landmask is   0.0000000E+00
         874          74  water and category           10 
  both at 50%, landmask is   0.0000000E+00
         190          92  water and category            2 
  both at 50%, landmask is   0.0000000E+00
         496          92  water and category            7 
  both at 50%, landmask is   0.0000000E+00
         685          92  water and category           12 
  both at 50%, landmask is   0.0000000E+00
         902          92  water and category           16 
  both at 50%, landmask is   0.0000000E+00
         501          94  water and category            5 
  both at 50%, landmask is   0.0000000E+00
         514          94  water and category            2 
  both at 50%, landmask is   0.0000000E+00
         516          94  water and category           16 
  both at 50%, landmask is   0.0000000E+00
         685          94  water and category            6 
  both at 50%, landmask is   0.0000000E+00
         675          97  water and category           12 
  both at 50%, landmask is   0.0000000E+00
         910          97  water and category           16 
  both at 50%, landmask is   0.0000000E+00
         544          98  water and category            2 
  both at 50%, landmask is   0.0000000E+00
         678          98  water and category            1 
  both at 50%, landmask is   0.0000000E+00
         561          99  water and category           13 
  both at 50%, landmask is   0.0000000E+00
         621         101  water and category           12 
  both at 50%, landmask is   0.0000000E+00
         578         103  water and category           13 
  both at 50%, landmask is   0.0000000E+00
         579         103  water and category           13 
  both at 50%, landmask is   0.0000000E+00
         580         103  water and category           13 
  both at 50%, landmask is   0.0000000E+00
         824         103  water and category           12 
  both at 50%, landmask is   0.0000000E+00
         591         104  water and category           13 
  both at 50%, landmask is   0.0000000E+00
         592         104  water and category           13 
  both at 50%, landmask is   0.0000000E+00
         593         104  water and category           13 
  both at 50%, landmask is   0.0000000E+00
         850         104  water and category           11 
  both at 50%, landmask is   0.0000000E+00
         852         105  water and category            2 
  both at 50%, landmask is   0.0000000E+00
         585         106  water and category            2 
  both at 50%, landmask is   0.0000000E+00
         571         107  water and category           13 
  both at 50%, landmask is   0.0000000E+00
         572         107  water and category           13 
  both at 50%, landmask is   0.0000000E+00
         694         107  water and category           13 
  both at 50%, landmask is   0.0000000E+00
         695         107  water and category           13 
  both at 50%, landmask is   0.0000000E+00
         696         107  water and category           13 
  both at 50%, landmask is   0.0000000E+00
         699         108  water and category           13 
  both at 50%, landmask is   0.0000000E+00
         701         108  water and category           13 
  both at 50%, landmask is   0.0000000E+00
         226         111  water and category           16 
  both at 50%, landmask is   0.0000000E+00
         649         111  water and category            2 
  both at 50%, landmask is   0.0000000E+00
         744         112  water and category           13 
  both at 50%, landmask is   0.0000000E+00
         893         112  water and category           13 
  both at 50%, landmask is   0.0000000E+00
         746         113  water and category           13 
  both at 50%, landmask is   0.0000000E+00
         747         113  water and category           13 
  both at 50%, landmask is   0.0000000E+00
         780         113  water and category           13 
  both at 50%, landmask is   0.0000000E+00
         316         116  water and category           16 
  both at 50%, landmask is   0.0000000E+00
         801         117  water and category            1 
  both at 50%, landmask is   0.0000000E+00
         337         118  water and category            7 
  both at 50%, landmask is   0.0000000E+00
         775         118  water and category            1 
  both at 50%, landmask is   0.0000000E+00
         889         118  water and category           13 
  both at 50%, landmask is   0.0000000E+00
         269         120  water and category           16 
  both at 50%, landmask is   0.0000000E+00
         274         120  water and category           16 
  both at 50%, landmask is   0.0000000E+00
         820         120  water and category           11 
  both at 50%, landmask is   0.0000000E+00
         769         121  water and category            1 
  both at 50%, landmask is   0.0000000E+00
         720         122  water and category            1 
  both at 50%, landmask is   0.0000000E+00
         721         122  water and category            1 
  both at 50%, landmask is   0.0000000E+00
         828         123  water and category           16 
  both at 50%, landmask is   0.0000000E+00
         202         124  water and category            5 
  both at 50%, landmask is   0.0000000E+00
         202         126  water and category            5 
  both at 50%, landmask is   0.0000000E+00
         203         127  water and category            9 
  both at 50%, landmask is   0.0000000E+00
        1096         130  water and category           16 
  both at 50%, landmask is   0.0000000E+00
         864         131  water and category           12 
  both at 50%, landmask is   0.0000000E+00
         882         134  water and category            2 
  both at 50%, landmask is   0.0000000E+00
        1047         148  water and category           12 
  both at 50%, landmask is   0.0000000E+00
         257         150  water and category           12 
  both at 50%, landmask is   0.0000000E+00
         259         150  water and category           12 
  both at 50%, landmask is   0.0000000E+00
         156         151  water and category            6 
  both at 50%, landmask is   0.0000000E+00
         106         156  water and category            1 
  both at 50%, landmask is   0.0000000E+00
         410         159  water and category            7 
  both at 50%, landmask is   0.0000000E+00
         135         162  water and category           16 
  both at 50%, landmask is   0.0000000E+00
         313         163  water and category           12 
  both at 50%, landmask is   0.0000000E+00
        1010         164  water and category            6 
  both at 50%, landmask is   0.0000000E+00
         993         167  water and category           16 
  both at 50%, landmask is   0.0000000E+00
        1083         173  water and category           10 
  both at 50%, landmask is   0.0000000E+00
         960         184  water and category            6 
  both at 50%, landmask is   0.0000000E+00
         223         185  water and category           10 
  both at 50%, landmask is   0.0000000E+00
         400         185  water and category           12 
  both at 50%, landmask is   0.0000000E+00
         162         187  water and category           10 
  both at 50%, landmask is   0.0000000E+00
        1089         187  water and category            5 
  both at 50%, landmask is   0.0000000E+00
         425         189  water and category            7 
  both at 50%, landmask is   0.0000000E+00
         223         191  water and category            5 
  both at 50%, landmask is   0.0000000E+00
         425         191  water and category           16 
  both at 50%, landmask is   0.0000000E+00
         301         198  water and category           12 
  both at 50%, landmask is   0.0000000E+00
        1051         198  water and category            1 
  both at 50%, landmask is   0.0000000E+00
        1052         198  water and category            2 
  both at 50%, landmask is   0.0000000E+00
         369         200  water and category            7 
  both at 50%, landmask is   0.0000000E+00
        1063         201  water and category            1 
  both at 50%, landmask is   0.0000000E+00
         368         202  water and category            7 
  both at 50%, landmask is   0.0000000E+00
        1120         202  water and category            6 
  both at 50%, landmask is   0.0000000E+00
         352         203  water and category            7 
  both at 50%, landmask is   0.0000000E+00
         325         204  water and category            5 
  both at 50%, landmask is   0.0000000E+00
         452         211  water and category            2 
  both at 50%, landmask is   0.0000000E+00
        1110         211  water and category           13 
  both at 50%, landmask is   0.0000000E+00
         457         216  water and category            2 
  both at 50%, landmask is   0.0000000E+00
        1109         217  water and category            1 
  both at 50%, landmask is   0.0000000E+00
         503         219  water and category            1 
  both at 50%, landmask is   0.0000000E+00
         506         219  water and category           16 
  both at 50%, landmask is   0.0000000E+00
         134         220  water and category           10 
  both at 50%, landmask is   0.0000000E+00
         136         226  water and category           10 
  both at 50%, landmask is   0.0000000E+00
        1117         227  water and category           13 
  both at 50%, landmask is   0.0000000E+00
         138         228  water and category           10 
  both at 50%, landmask is   0.0000000E+00
        1074         232  water and category            1 
  both at 50%, landmask is   0.0000000E+00
         805         233  water and category           16 
  both at 50%, landmask is   0.0000000E+00
         573         234  water and category           11 
  both at 50%, landmask is   0.0000000E+00
         802         235  water and category            7 
  both at 50%, landmask is   0.0000000E+00
         420         239  water and category            7 
  both at 50%, landmask is   0.0000000E+00
         830         242  water and category           16 
  both at 50%, landmask is   0.0000000E+00
         396         243  water and category            7 
  both at 50%, landmask is   0.0000000E+00
        1125         247  water and category           13 
  both at 50%, landmask is   0.0000000E+00
         800         253  water and category            6 
  both at 50%, landmask is   0.0000000E+00
          62         255  water and category            6 
  both at 50%, landmask is   0.0000000E+00
          64         255  water and category           16 
  both at 50%, landmask is   0.0000000E+00
         233         256  water and category           11 
  both at 50%, landmask is   0.0000000E+00
          67         257  water and category           13 
  both at 50%, landmask is   0.0000000E+00
          51         260  water and category            1 
  both at 50%, landmask is   0.0000000E+00
         802         260  water and category           11 
  both at 50%, landmask is   0.0000000E+00
         246         265  water and category           11 
  both at 50%, landmask is   0.0000000E+00
         592         266  water and category            1 
  both at 50%, landmask is   0.0000000E+00
         245         267  water and category            1 
  both at 50%, landmask is   0.0000000E+00
         411         269  water and category            7 
  both at 50%, landmask is   0.0000000E+00
         610         274  water and category            2 
  both at 50%, landmask is   0.0000000E+00
        1137         276  water and category            5 
  both at 50%, landmask is   0.0000000E+00
         430         278  water and category           12 
  both at 50%, landmask is   0.0000000E+00
         801         280  water and category           12 
  both at 50%, landmask is   0.0000000E+00
         623         282  water and category           13 
  both at 50%, landmask is   0.0000000E+00
         340         284  water and category           12 
  both at 50%, landmask is   0.0000000E+00
         274         288  water and category            7 
  both at 50%, landmask is   0.0000000E+00
         183         292  water and category            5 
  both at 50%, landmask is   0.0000000E+00
         144         295  water and category            8 
  both at 50%, landmask is   0.0000000E+00
         464         296  water and category           13 
  both at 50%, landmask is   0.0000000E+00
         111         304  water and category            1 
  both at 50%, landmask is   0.0000000E+00
         234         307  water and category            5 
  both at 50%, landmask is   0.0000000E+00
         235         307  water and category            8 
  both at 50%, landmask is   0.0000000E+00
         796         308  water and category            1 
  both at 50%, landmask is   0.0000000E+00
        1081         311  water and category            2 
  both at 50%, landmask is   0.0000000E+00
        1098         312  water and category            2 
  both at 50%, landmask is   0.0000000E+00
         351         313  water and category           12 
  both at 50%, landmask is   0.0000000E+00
         345         314  water and category           12 
  both at 50%, landmask is   0.0000000E+00
         347         315  water and category            7 
  both at 50%, landmask is   0.0000000E+00
        1078         315  water and category            1 
  both at 50%, landmask is   0.0000000E+00
         366         316  water and category            1 
  both at 50%, landmask is   0.0000000E+00
         366         317  water and category            1 
  both at 50%, landmask is   0.0000000E+00
        1075         317  water and category            7 
  both at 50%, landmask is   0.0000000E+00
        1209         319  water and category            6 
  both at 50%, landmask is   0.0000000E+00
        1210         322  water and category            2 
  both at 50%, landmask is   0.0000000E+00
         484         323  water and category            5 
  both at 50%, landmask is   0.0000000E+00
         483         325  water and category           13 
  both at 50%, landmask is   0.0000000E+00
         205         327  water and category            1 
  both at 50%, landmask is   0.0000000E+00
        1118         330  water and category           12 
  both at 50%, landmask is   0.0000000E+00
         849         331  water and category            6 
  both at 50%, landmask is   0.0000000E+00
         849         332  water and category            1 
  both at 50%, landmask is   0.0000000E+00
         810         333  water and category           13 
  both at 50%, landmask is   0.0000000E+00
         846         336  water and category            1 
  both at 50%, landmask is   0.0000000E+00
         497         338  water and category           13 
  both at 50%, landmask is   0.0000000E+00
         498         338  water and category           13 
  both at 50%, landmask is   0.0000000E+00
          91         340  water and category           16 
  both at 50%, landmask is   0.0000000E+00
         505         340  water and category           13 
  both at 50%, landmask is   0.0000000E+00
        1172         340  water and category           16 
  both at 50%, landmask is   0.0000000E+00
         507         341  water and category           13 
  both at 50%, landmask is   0.0000000E+00
        1175         341  water and category            6 
  both at 50%, landmask is   0.0000000E+00
        1176         341  water and category           16 
  both at 50%, landmask is   0.0000000E+00
         312         342  water and category            1 
  both at 50%, landmask is   0.0000000E+00
        1058         342  water and category           13 
  both at 50%, landmask is   0.0000000E+00
        1021         343  water and category           13 
  both at 50%, landmask is   0.0000000E+00
         517         344  water and category           13 
  both at 50%, landmask is   0.0000000E+00
         519         344  water and category           13 
  both at 50%, landmask is   0.0000000E+00
         525         345  water and category           13 
  both at 50%, landmask is   0.0000000E+00
         308         347  water and category            5 
  both at 50%, landmask is   0.0000000E+00
         825         347  water and category            1 
  both at 50%, landmask is   0.0000000E+00
        1027         347  water and category           13 
  both at 50%, landmask is   0.0000000E+00
        1032         347  water and category           13 
  both at 50%, landmask is   0.0000000E+00
        1038         347  water and category           13 
  both at 50%, landmask is   0.0000000E+00
         521         348  water and category           13 
  both at 50%, landmask is   0.0000000E+00
         534         348  water and category           13 
  both at 50%, landmask is   0.0000000E+00
         535         348  water and category           13 
  both at 50%, landmask is   0.0000000E+00
         538         348  water and category           13 
  both at 50%, landmask is   0.0000000E+00
         476         349  water and category           13 
  both at 50%, landmask is   0.0000000E+00
        1025         349  water and category           13 
  both at 50%, landmask is   0.0000000E+00
        1036         349  water and category           13 
  both at 50%, landmask is   0.0000000E+00
        1152         349  water and category           13 
  both at 50%, landmask is   0.0000000E+00
        1125         350  water and category           12 
  both at 50%, landmask is   0.0000000E+00
         457         353  water and category            7 
  both at 50%, landmask is   0.0000000E+00
         412         355  water and category            7 
  both at 50%, landmask is   0.0000000E+00
         105         356  water and category            5 
  both at 50%, landmask is   0.0000000E+00
         464         358  water and category            6 
  both at 50%, landmask is   0.0000000E+00
        1189         358  water and category           13 
  both at 50%, landmask is   0.0000000E+00
         549         359  water and category           13 
  both at 50%, landmask is   0.0000000E+00
         448         360  water and category            7 
  both at 50%, landmask is   0.0000000E+00
        1186         362  water and category           13 
  both at 50%, landmask is   0.0000000E+00
         820         363  water and category            1 
  both at 50%, landmask is   0.0000000E+00
         559         364  water and category           13 
  both at 50%, landmask is   0.0000000E+00
         566         367  water and category           13 
[...]
  both at 50%, landmask is   0.0000000E+00
         274         455  water and category           12 
  both at 50%, landmask is   0.0000000E+00
         597         455  water and category           13 
  both at 50%, landmask is   0.0000000E+00
         598         455  water and category           13 
  both at 50%, landmask is   0.0000000E+00
         304         456  water and category           14 
  both at 50%, landmask is   0.0000000E+00
         600         457  water and category           13 
  both at 50%, landmask is   0.0000000E+00
        1197         458  water and category            1 
  both at 50%, landmask is   0.0000000E+00
         109         459  water and category           11 
  both at 50%, landmask is   0.0000000E+00
        1006         459  water and category           13 
  both at 50%, landmask is   0.0000000E+00
         642         460  water and category           16 
  both at 50%, landmask is   0.0000000E+00
        1187         460  water and category            1 
  both at 50%, landmask is   0.0000000E+00
         605         461  water and category           13 
  both at 50%, landmask is   0.0000000E+00
         654         463  water and category           16 
  both at 50%, landmask is   0.0000000E+00
         664         463  water and category           13 
  both at 50%, landmask is   0.0000000E+00
         634         464  water and category           13 
  both at 50%, landmask is   0.0000000E+00
         665         465  water and category           13 
  both at 50%, landmask is   0.0000000E+00
        1123         465  water and category            7 
  both at 50%, landmask is   0.0000000E+00
        1121         467  water and category            1 
  both at 50%, landmask is   0.0000000E+00
         622         469  water and category           13 
  both at 50%, landmask is   0.0000000E+00
        1168         469  water and category            1 
  both at 50%, landmask is   0.0000000E+00
         391         470  water and category            1 
  both at 50%, landmask is   0.0000000E+00
         615         470  water and category           13 
  both at 50%, landmask is   0.0000000E+00
         620         470  water and category           13 
  both at 50%, landmask is   0.0000000E+00
         736         470  water and category            1 
  both at 50%, landmask is   0.0000000E+00
         868         470  water and category           13 
  both at 50%, landmask is   0.0000000E+00
         616         471  water and category           13 
  both at 50%, landmask is   0.0000000E+00
         628         471  water and category           12 
  both at 50%, landmask is   0.0000000E+00
         359         473  water and category            1 
  both at 50%, landmask is   0.0000000E+00
         629         474  water and category            5 
  both at 50%, landmask is   0.0000000E+00
         332         476  water and category            1 
  both at 50%, landmask is   0.0000000E+00
         348         476  water and category            1 
  both at 50%, landmask is   0.0000000E+00
         349         476  water and category            1 
  both at 50%, landmask is   0.0000000E+00
        1111         477  water and category            1 
  both at 50%, landmask is   0.0000000E+00
        1115         478  water and category            1 
  both at 50%, landmask is   0.0000000E+00
        1203         478  water and category           14 
  both at 50%, landmask is   0.0000000E+00
          98         479  water and category            1 
  both at 50%, landmask is   0.0000000E+00
         295         479  water and category            1 
  both at 50%, landmask is   0.0000000E+00
         298         479  water and category            1 
  both at 50%, landmask is   0.0000000E+00
         285         480  water and category            1 
  both at 50%, landmask is   0.0000000E+00
         286         480  water and category            1 
  both at 50%, landmask is   0.0000000E+00
         996         480  water and category           13 
  both at 50%, landmask is   0.0000000E+00
         109         482  water and category            1 
  both at 50%, landmask is   0.0000000E+00
         310         482  water and category            1 
  both at 50%, landmask is   0.0000000E+00
         995         482  water and category           13 
  both at 50%, landmask is   0.0000000E+00
         273         484  water and category           11 
  both at 50%, landmask is   0.0000000E+00
         758         485  water and category           13 
  both at 50%, landmask is   0.0000000E+00
        1100         485  water and category            1 
  both at 50%, landmask is   0.0000000E+00
        1101         487  water and category            1 
  both at 50%, landmask is   0.0000000E+00
        1104         488  water and category            1 
  both at 50%, landmask is   0.0000000E+00
        1124         488  water and category            1 
  both at 50%, landmask is   0.0000000E+00
        1127         488  water and category            1 
  both at 50%, landmask is   0.0000000E+00
         100         489  water and category            5 
  both at 50%, landmask is   0.0000000E+00
         410         489  water and category            1 
  both at 50%, landmask is   0.0000000E+00
         776         493  water and category           13 
  both at 50%, landmask is   0.0000000E+00
        1101         493  water and category            1 
  both at 50%, landmask is   0.0000000E+00
        1101         496  water and category            1 
  both at 50%, landmask is   0.0000000E+00
         121         497  water and category            1 
  both at 50%, landmask is   0.0000000E+00
        1105         498  water and category            2 
  both at 50%, landmask is   0.0000000E+00
        1110         498  water and category            1 
  both at 50%, landmask is   0.0000000E+00
         843         505  water and category           11 
  both at 50%, landmask is   0.0000000E+00
         642         512  water and category           12 
  both at 50%, landmask is   0.0000000E+00
         150         513  water and category            1 
  both at 50%, landmask is   0.0000000E+00
         153         514  water and category            1 
  both at 50%, landmask is   0.0000000E+00
         943         518  water and category           13 
  both at 50%, landmask is   0.0000000E+00
        1051         518  water and category            1 
  both at 50%, landmask is   0.0000000E+00
        1066         518  water and category            7 
  both at 50%, landmask is   0.0000000E+00
         942         519  water and category           13 
  both at 50%, landmask is   0.0000000E+00
        1054         519  water and category           11 
  both at 50%, landmask is   0.0000000E+00
         807         520  water and category           13 
  both at 50%, landmask is   0.0000000E+00
        1058         521  water and category           13 
  both at 50%, landmask is   0.0000000E+00
        1103         521  water and category           14 
  both at 50%, landmask is   0.0000000E+00
        1044         523  water and category            1 
  both at 50%, landmask is   0.0000000E+00
        1139         525  water and category            4 
  both at 50%, landmask is   0.0000000E+00
        1140         525  water and category            4 
  both at 50%, landmask is   0.0000000E+00
         422         526  water and category            1 
  both at 50%, landmask is   0.0000000E+00
         418         527  water and category            1 
  both at 50%, landmask is   0.0000000E+00
         422         527  water and category            1 
  both at 50%, landmask is   0.0000000E+00
         419         528  water and category            1 
  both at 50%, landmask is   0.0000000E+00
        1036         531  water and category            1 
  both at 50%, landmask is   0.0000000E+00
        1033         534  water and category            1 
  both at 50%, landmask is   0.0000000E+00
         451         535  water and category           12 
  both at 50%, landmask is   0.0000000E+00
         567         535  water and category            5 
  both at 50%, landmask is   0.0000000E+00
        1028         539  water and category            1 
  both at 50%, landmask is   0.0000000E+00
        1021         543  water and category            1 
  both at 50%, landmask is   0.0000000E+00
        1014         548  water and category            1 
  both at 50%, landmask is   0.0000000E+00
        1042         548  water and category            7 
  both at 50%, landmask is   0.0000000E+00
        1021         549  water and category            1 
  both at 50%, landmask is   0.0000000E+00
         796         550  water and category           12 
  both at 50%, landmask is   0.0000000E+00
        1015         550  water and category            1 
  both at 50%, landmask is   0.0000000E+00
         936         552  water and category           16 
  both at 50%, landmask is   0.0000000E+00
        1016         552  water and category            1 
  both at 50%, landmask is   0.0000000E+00
         797         553  water and category           12 
  both at 50%, landmask is   0.0000000E+00
         870         554  water and category           12 
  both at 50%, landmask is   0.0000000E+00
         626         555  water and category            5 
  both at 50%, landmask is   0.0000000E+00
         929         555  water and category           12 
  both at 50%, landmask is   0.0000000E+00
         420         556  water and category            1 
  both at 50%, landmask is   0.0000000E+00
         803         556  water and category           12 
  both at 50%, landmask is   0.0000000E+00
        1012         556  water and category            1 
  both at 50%, landmask is   0.0000000E+00
         807         557  water and category           12 
  both at 50%, landmask is   0.0000000E+00
         848         557  water and category           12 
  both at 50%, landmask is   0.0000000E+00
         821         559  water and category           13 
  both at 50%, landmask is   0.0000000E+00
         827         559  water and category           12 
  both at 50%, landmask is   0.0000000E+00
         846         559  water and category           12 
  both at 50%, landmask is   0.0000000E+00
         870         560  water and category           12 
  both at 50%, landmask is   0.0000000E+00
         918         560  water and category           12 
  both at 50%, landmask is   0.0000000E+00
         440         561  water and category           13 
  both at 50%, landmask is   0.0000000E+00
         813         561  water and category           12 
  both at 50%, landmask is   0.0000000E+00
         877         561  water and category           12 
  both at 50%, landmask is   0.0000000E+00
         888         561  water and category           12 
  both at 50%, landmask is   0.0000000E+00
         889         561  water and category           12 
  both at 50%, landmask is   0.0000000E+00
         440         562  water and category            5 
  both at 50%, landmask is   0.0000000E+00
         933         563  water and category            2 
  both at 50%, landmask is   0.0000000E+00
        1028         566  water and category            7 
  both at 50%, landmask is   0.0000000E+00
         805         567  water and category            5 
  both at 50%, landmask is   0.0000000E+00
        1011         567  water and category            1 
  both at 50%, landmask is   0.0000000E+00
         730         569  water and category            7 
  both at 50%, landmask is   0.0000000E+00
        1024         570  water and category            7 
  both at 50%, landmask is   0.0000000E+00
        1025         571  water and category            7 
  both at 50%, landmask is   0.0000000E+00
         800         572  water and category           13 
  both at 50%, landmask is   0.0000000E+00
         685         577  water and category            4 
  both at 50%, landmask is   0.0000000E+00
         798         577  water and category           13 
  both at 50%, landmask is   0.0000000E+00
         743         578  water and category            7 
  both at 50%, landmask is   0.0000000E+00
         927         579  water and category            1 
  both at 50%, landmask is   0.0000000E+00
         931         580  water and category            1 
  both at 50%, landmask is   0.0000000E+00
         931         586  water and category           13 
  both at 50%, landmask is   0.0000000E+00
         841         591  water and category           13 
  both at 50%, landmask is   0.0000000E+00
         844         592  water and category            5 
  both at 50%, landmask is   0.0000000E+00
        1215         592  water and category            4 
  both at 50%, landmask is   0.0000000E+00
         699         593  water and category            5 
  both at 50%, landmask is   0.0000000E+00
         697         596  water and category           13 
  both at 50%, landmask is   0.0000000E+00
         871         596  water and category            1 
  both at 50%, landmask is   0.0000000E+00
         872         598  water and category            1 
  both at 50%, landmask is   0.0000000E+00
         981         598  water and category            5 
  both at 50%, landmask is   0.0000000E+00
        1237         598  water and category           13 
  both at 50%, landmask is   0.0000000E+00
        1171         600  water and category           12 
  both at 50%, landmask is   0.0000000E+00
         959         602  water and category           13 
  both at 50%, landmask is   0.0000000E+00
         965         606  water and category           16 
  both at 50%, landmask is   0.0000000E+00
         807         607  water and category            1 
  both at 50%, landmask is   0.0000000E+00
         806         608  water and category            5 
  both at 50%, landmask is   0.0000000E+00
         807         608  water and category           10 
  both at 50%, landmask is   0.0000000E+00
        1234         609  water and category           12 
  both at 50%, landmask is   0.0000000E+00
         725         610  water and category            7 
  both at 50%, landmask is   0.0000000E+00
         815         612  water and category            1 
  both at 50%, landmask is   0.0000000E+00
         816         613  water and category            1 
  both at 50%, landmask is   0.0000000E+00
        1191         614  water and category           12 
  both at 50%, landmask is   0.0000000E+00
        1198         614  water and category           12 
  both at 50%, landmask is   0.0000000E+00
        1205         615  water and category           12 
  both at 50%, landmask is   0.0000000E+00
        1225         617  water and category           12 
  both at 50%, landmask is   0.0000000E+00
         416         621  water and category            1 
  both at 50%, landmask is   0.0000000E+00
         831         622  water and category            7 
  both at 50%, landmask is   0.0000000E+00
         701         623  water and category           13 
  both at 50%, landmask is   0.0000000E+00
         765         630  water and category            5 
  both at 50%, landmask is   0.0000000E+00
         850         632  water and category            7 
  both at 50%, landmask is   0.0000000E+00
         732         636  water and category            5 
  both at 50%, landmask is   0.0000000E+00
         848         639  water and category            7 
  both at 50%, landmask is   0.0000000E+00
         754         640  water and category            5 
  both at 50%, landmask is   0.0000000E+00
         754         642  water and category            1 
  both at 50%, landmask is   0.0000000E+00
         717         646  water and category            1 
  both at 50%, landmask is   0.0000000E+00
         718         646  water and category            5 
  both at 50%, landmask is   0.0000000E+00
         407         649  water and category           12 
  both at 50%, landmask is   0.0000000E+00
         408         649  water and category           12 
  both at 50%, landmask is   0.0000000E+00
         841         655  water and category           15 
  both at 50%, landmask is   0.0000000E+00
         583         656  water and category            5 
  both at 50%, landmask is   0.0000000E+00
         991         657  water and category            5 
  both at 50%, landmask is   0.0000000E+00
         778         661  water and category            1 
  both at 50%, landmask is   0.0000000E+00
        1203         663  water and category           12 
  both at 50%, landmask is   0.0000000E+00
         968         664  water and category            1 
  both at 50%, landmask is   0.0000000E+00
         770         665  water and category            1 
  both at 50%, landmask is   0.0000000E+00
         769         666  water and category            1 
  both at 50%, landmask is   0.0000000E+00
         879         669  water and category            7 
  both at 50%, landmask is   0.0000000E+00
         797         672  water and category            5 
  both at 50%, landmask is   0.0000000E+00
         423         678  water and category           13 
  both at 50%, landmask is   0.0000000E+00
         425         679  water and category           12 
  both at 50%, landmask is   0.0000000E+00
         501         679  water and category           13 
  both at 50%, landmask is   0.0000000E+00
         436         680  water and category           12 
  both at 50%, landmask is   0.0000000E+00
        1165         680  water and category           12 
  both at 50%, landmask is   0.0000000E+00
         459         682  water and category           12 
  both at 50%, landmask is   0.0000000E+00
         817         687  water and category            1 
  both at 50%, landmask is   0.0000000E+00
         818         687  water and category            1 
  both at 50%, landmask is   0.0000000E+00
         373         692  water and category            1 
  both at 50%, landmask is   0.0000000E+00
        1134         698  water and category           12 
  both at 50%, landmask is   0.0000000E+00
         349         701  water and category            2 
  both at 50%, landmask is   0.0000000E+00
         768         702  water and category            1 
  both at 50%, landmask is   0.0000000E+00
         349         705  water and category            1 
  both at 50%, landmask is   0.0000000E+00
         434         722  water and category           12 
  both at 50%, landmask is   0.0000000E+00
         630         722  water and category           12 
  both at 50%, landmask is   0.0000000E+00
         631         724  water and category            5 
  both at 50%, landmask is   0.0000000E+00
        1076         728  water and category            1 
  both at 50%, landmask is   0.0000000E+00
        1077         731  water and category           12 
  both at 50%, landmask is   0.0000000E+00
        1077         732  water and category           12 
  both at 50%, landmask is   0.0000000E+00
        1156         747  water and category            4 
  both at 50%, landmask is   0.0000000E+00
         299         748  water and category            1 
  both at 50%, landmask is   0.0000000E+00
d01 2021-01-01_18:00:00 forcing artificial silty clay loam at 5469 points, out of 935501
 LAND  CHANGE =            0
 WATER CHANGE =            0
d01 2021-01-01_18:00:00 Timing for processing         41 s.
 LBC valid between these times 2021-01-01_12:00:00 and 2021-01-01_18:00:00
d01 2021-01-01_18:00:00 Timing for output          1 s.
d01 2021-01-01_18:00:00 Timing for loop #    4 =         44 s.
d01 2021-01-01_18:00:00 real_em: SUCCESS COMPLETE REAL_EM INIT
